100
Lattice="17.395296948 0.0 0.0 0.0 17.395296948 0.0 0.0 0.0 17.395296948" Properties=species:S:1:pos:R:3:dlp4_labels:S:1:momenta:R:3:forces:R:3 pbc="T T T"
Ar       4.02397288       2.25720151       2.47652301       29.34241842      67.21622401      57.30559543    -808.15537330     -36.32789404     156.69311510 
Ar       4.29215011       0.74193845      -1.54218422      102.64802742     -25.78482187     -52.16316282     -45.76813433      67.88115320     251.80198100 
Ar       0.83436158       4.89482787       5.03191731       41.02488579    -102.47833164       9.01537142     -58.65859925       8.44598601     287.67957670 
Ar      -7.89603691      -0.91476430      -0.18632517       19.18443177      58.10893885      17.64908170     133.28003640    -444.77014160     897.23460870 
Ar      -5.92111981      -1.28000932       5.91861348       30.75579974      10.37753823      51.27873387     247.94301720     187.95028180     341.68641500 
Ar       5.88049804       4.56950941      -3.75761195       -2.38870535     -79.58862631      72.07930361     -83.40733053   -1206.38578400     -40.95066834 
Ar      -1.88275877       3.20825092      -0.27153171       21.91090700     -27.43862312     -64.51806522     824.35582740    -541.90267000     -82.44069580 
Ar      -2.79694205      -1.51877617      -2.70797494     -110.71076666     -26.00631998      42.36098528     361.47859020    -578.39069220      33.35110919 
Ar      -3.91155828      -5.82834872      -3.64927064      -37.18330811     -32.82192288     -74.99443836     -42.80139046      -6.68087787    -299.33795300 
Ar      -3.78712877       7.88682770      -1.86961966      147.70868076     -51.07325051      14.66120498      11.06428253     325.94532360    -446.27855390 
Ar      -7.34639920      -5.68490123      -5.99610902       50.51542127      70.97362686      62.53400513      87.67819965      16.16827047      -2.62251682 
Ar       5.80257172      -1.50662849       3.10312018       76.20552139     -11.03682111      18.81793136     196.84846490     120.23966940    -122.13401780 
Ar       3.23529952      -6.17056992       7.14891000       23.45976074     -38.04829890     101.58344263    -373.89535450     -98.49366532      97.74016880 
Ar      -5.27869171      -5.02017628       3.34215192       14.66933646     -17.71449874     -59.24646282     343.31095670    -191.98333480     -55.25172799 
Ar       3.55778481       3.41044676       7.24874901       68.58296014      28.74790007     -53.41999409     -30.96692162     -76.37201105     -61.53198412 
Ar      -4.78638105       0.79503727      -8.40765818      -62.77454391      66.66618167     -42.08996961       9.19965550      -8.34799523     -79.68850899 
Ar      -0.80082023      -1.74751048       2.15987048      -67.81035619     -34.40005750     -94.14413899     199.61606640    -298.16619900     440.88121790 
Ar      -5.27506341       6.75191454       4.54326150     -103.44774000     -42.50048022      67.61488627    -437.61026990     273.83731580    -388.54067850 
Ar       0.80557951       5.80675874      -2.59656017      -43.48007505      50.95230027      47.39469709      13.87086146       0.34063205     128.38511810 
Ar      -4.44676552       5.28176704       0.22822282      -49.21624204      37.77979741      37.36606823    -636.64420670     219.06966360     571.11742180 
Ar      -4.21458330       4.14248111      -3.33844254      -36.37255018     -43.95596343     101.39466532     -50.32810778     117.59388510     493.24446380 
Ar       1.96905401       2.42187792      -4.22300952       69.04085562      52.39461674      12.03304120     618.22461660    2140.82055900     278.77384990 
Ar      -7.59017232      -5.10329370       0.12680977       11.75421060      67.78150207     -23.12915995     374.89466680     -38.40532471    -195.85311070 
Ar       3.48245244       7.26389344       7.05095578       -6.93398247     -84.75525259      96.10068329     -62.68326589      90.51086528     -14.17021830 
Ar       2.40758966      -8.31666106       0.63166696       -4.41666978      11.48925275       4.64651134      25.47723226    -149.47461640     504.71995860 
Ar       0.97800613      -7.55076861       4.11357043       62.54789829    -115.49139391      41.05630972     166.42970240     -71.42355094      41.75417814 
Ar      -3.85193992       5.31224312       7.46307952      107.20122093     -30.54544369     -29.82611045    -328.34275290     496.22734630    -530.77688490 
Ar       6.15767026       1.37246272       5.13695626      -53.17498394      17.84431870      66.05279595     -42.68397164     744.08191920      21.07196514 
Ar      -2.77440881       4.51727430       3.76136823       49.41285555     -44.97451243     -45.78971648     569.75685880     221.40912240    -179.23660070 
Ar       6.06674456       7.88835623      -3.71903336      -54.00411502      -7.37946302     -59.26189413     274.54758970     747.80636330     -10.70088202 
Ar       8.68253548      -7.73654098       3.20236861      -79.38803553    -146.48966734      80.43985143    -574.26182690     531.87280850     576.33453350 
Ar      -7.70069553       0.34679135       3.31764366        4.55930017      44.86536654      47.83142209    -662.99041360    -632.76950510     677.66593800 
Ar      -8.30009754       0.52492686      -3.17862580       -8.41402522      58.00732951      95.65165950    -235.40623540     617.25944190    -798.91566130 
Ar       1.59829762       4.83747918       1.57368705       23.13027314      28.12392754     140.88875804    -909.50046550    -465.15107000    -801.58430410 
Ar       6.18354109      -8.56861084      -0.05878364       79.23434307      21.24127170     -29.16493220     220.06785350     305.80669040     165.66501240 
Ar      -3.13295920      -5.05547718      -0.25736030       77.66310334     105.06595511      29.63588260    -174.18560380      -9.73642400     208.84684330 
Ar      -0.09509410      -4.72806022      -2.88648418      -35.81562224     -35.90082926     -88.07033949      65.88584102      30.54624998     122.83226310 
Ar      -0.29241802       0.17668582       8.60057652     -115.49068408     -39.37282349     -19.66400431     259.96584780      15.61494808     471.07075970 
Ar       7.28583696       1.44056235      -7.91320542      -61.88237907      24.15342939      -7.90756644    -422.71104160     499.79188700    -108.56871760 
Ar       4.23492346      -3.89795044      -4.49798329      -17.00187469     -81.25456149    -102.24605818    -242.85198170    -189.79394930     -49.47055131 
Ar       7.79805271       5.81943873       2.79334365       39.91020013     -26.80042743     -36.92877180     154.03776550     -35.22870874    -162.26620880 
Ar      -2.43256077      -7.19705937       3.15403760      -70.41357652     -55.23901245      79.07441046    -231.92614530     247.07017110     -81.99194589 
Ar      -7.09801631      -8.02139480      -2.55296294      101.23493939      74.56583935      -1.50247908    -312.17252650     166.63330630     337.77349600 
Ar      -1.06274940       7.48748308      -5.36428961       67.13163923      -4.29295007    -109.53797024    -234.61620110     111.17682440     234.63688910 
Ar       4.13722250       6.22174853       3.22083768     -161.03339820      15.00612804     -38.63909533     623.94325380     496.46559490     499.95627400 
Ar      -0.73495203      -7.84259039      -1.14215054       20.27968846      -4.56177170      52.88256286     134.28383560     153.13328310    -510.58153650 
Ar      -4.73580548      -4.60929985       7.64720207      -44.20921253     -27.31332871     -24.10820702    1343.16728200    -222.06586820    -140.84124300 
Ar       5.38803138      -2.10048958      -7.52491323       35.25794338      26.85658566     107.05564814     120.14078890    -559.15293790    -839.23591410 
Ar      -6.89407382      -2.79355491      -3.42140158       15.18018758     -59.59568189     -86.09340652     -25.85306541    -242.79474490     280.17725930 
Ar      -0.53704184      -4.14680455       4.87091768      -89.32232295      17.57662330     136.80447257     195.17058660    -523.34759880      28.55209068 
Ar       3.28725180       5.11287003      -6.66560102     -104.11141506      77.23818925     -63.16184899     562.62216160     127.19112840     127.73406290 
Ar      -8.09643072      -3.16777301       3.89186591       13.78509380      75.66270473     -48.83478230    -842.76293130     -93.13033164     -29.68135574 
Ar       6.68129029      -7.45290273       7.06251561      -46.45741255      27.49141353      13.38043346     126.86499550     -86.12083475     -28.98674617 
Ar       2.03104995      -0.77862207      -4.27782560       22.66789661      31.96840779    -123.69015014     436.63453640   -1636.26804500     442.21147950 
Ar      -8.15749575      -1.11533250      -6.70732858      -15.55067722     -35.60398418      55.93504691     118.43198090    -305.53823820     185.00503900 
Ar       6.63979766      -2.47482917      -2.19128260       -6.55896252     -29.83626942     -17.51249352     597.30487550     480.52508290     -48.25809070 
Ar      -0.60411668      -2.39486216      -5.54519132        4.83191928      27.25193485     -53.49401290    -728.23532760    -174.32163840    -616.71877810 
Ar      -2.31440245      -1.32299579       5.80864135      -47.82717638      23.73312964    -125.08662783     -63.21423085     355.81620910      63.50917254 
Ar       1.07739538      -3.05586967       8.36618651     -138.28164426      -9.52353940     -39.79866455     232.22101220    -338.60240730     -22.73796688 
Ar       4.59893535      -7.86024349      -6.73416934      -62.18981856     -29.38335034      16.25691043      19.14254796      -8.71229184    -119.28112090 
Ar       5.47793300      -0.09636581      -4.81228442      -35.37524901      45.03003024     -31.36456759     963.97520860     263.12971480    1013.70447600 
Ar       4.51332428      -7.12226167       3.62213764       69.44454817      69.01157801     -23.74831993     286.11669060      26.73294003      -6.23612107 
Ar      -5.28784651       8.46218956      -5.40004463      142.36354273      65.69469345      71.25369314     330.38738690    -158.18113060     244.22404660 
Ar      -8.11427865       5.18833238      -1.33348973       97.15576426     -27.22663481     -89.34662148      -7.58676470      39.72704031      55.80850035 
Ar       4.25895798       5.87979324      -0.68766555       52.43244318     -97.05829058     -54.62091183     -33.06901788    -135.98321970     -64.13221244 
Ar       3.45945428       0.95043453      -7.26707460      118.56307341      -9.93858678      -4.90779491    -672.10435170     420.35581900    -830.15674240 
Ar      -1.57712491       7.73976217       5.80931459        6.21414452      45.07126604      36.06218269     -50.60644436     -53.51098841      59.80358265 
Ar      -0.02663634       4.55522406      -7.35851434      -35.55788710     -16.16017673     -49.68526408     -58.14088757    -189.60786700    -378.69098470 
Ar      -1.32190454       1.94561280      -4.98444960       37.24560122     -26.92424959     -28.67927055    -530.36994250    -193.08075990    -105.24017700 
Ar       3.19860544      -7.65540116      -2.69758863       43.24896907      82.09817992     -32.06842611    -125.37931180     270.17558050    -360.76060330 
Ar       0.27179896      -5.00891152       0.90253538       15.76886775      36.74872188      12.79403186     322.67994890     -73.39948479     232.59795810 
Ar      -1.68625031      -5.17098104      -7.67555127       44.99987869      43.54945461      84.57642860     -98.21897823      22.87499107     -20.52037907 
Ar      -4.78452040      -2.23483737      -6.23658615      -14.92204934      36.57050571      50.13462459     446.73654910    -673.48220850    -406.45576420 
Ar      -7.41718499       7.46814832      -7.99676652        4.62848705     -77.39941866     -44.95715546    -190.81146820       4.43681368    -290.02279480 
Ar      -3.26900489      -8.39820825      -8.21715361      -38.12580185      31.23872494     -59.89943030      61.48523736    -172.86843070    -333.59981130 
Ar      -2.17630777       2.37264435       6.74838743      110.84520226      78.03698842      21.98329792      -1.60149573      -7.88023784    -407.65337300 
Ar       2.83121915      -3.48428194       3.39070415       -3.00066832      49.43526222       4.30802734    -118.75281820    -215.70445260      -0.11177021 
Ar      -6.77294155       3.85891742      -7.69909591      -33.24766708     -24.47060652     -94.44783371    -128.36412570     -80.43712751     179.26904590 
Ar      -7.81498892       2.32717452       6.61008238      -16.43517264     -20.66011053     -20.55065917      68.98231225    -161.93973450    -192.36992470 
Ar       7.64198128      -1.11234007       6.88083370       -8.85802626      37.09200241       8.16911552     228.15989230     787.98005260      81.16825595 
Ar       0.40668630       0.15847025      -0.42233937      -14.52584506    -101.67463920     -12.51267634     217.86499200     306.82060970    -519.43095090 
Ar       3.19166727      -0.78359195       6.15528053       -2.42127194      43.10345892      68.72863260      81.62793356      -0.13403908      65.57224496 
Ar       0.60009132       1.00275210       3.96779709      -34.32216100     -56.88958687     -40.39856974      -2.48345773     259.31798710     141.87933750 
Ar       7.09387624      -6.06084348      -3.00474617      -30.87145868      -7.22933367     -14.32195135     -10.64984784      78.31537788      74.70707403 
Ar       4.24331794      -4.41066515      -0.67650243      -21.46746188      53.78577248     -48.79956075   -1311.57803200    -335.16331350    -462.30543430 
Ar      -6.60719050       2.67221343       1.29532863       26.58152459      53.99768152     -27.69652155     172.86756350     953.46949990    -675.51952830 
Ar      -3.43398236       4.70957137      -6.67787914      -34.47675247       2.72979929      55.13471122     -41.50460072     -15.51314876     665.19270220 
Ar      -4.76873516       0.79135292      -4.58483637       51.39726914    -152.68478557     -22.52328943    -353.03997870     357.28390360    -662.74820590 
Ar      -7.84759896      -3.63482611       7.91830763     -125.50852198      19.54975918    -100.33062257    -867.39296760    -526.99701420     475.10737370 
Ar       5.82221509      -3.86767176       6.15406684       44.70527090      50.06791455     -92.06614749    -279.11290740    -430.47282960    -319.14929170 
Ar      -1.02847403       7.39572895       1.52975956      -14.47202040     -70.02956155      -1.50236417     -42.07075347    -582.17164650     309.30414810 
Ar      -6.69673733       8.02959672       1.07056581      -60.18089420       8.76466899     -26.37695894     464.52926530    -319.10178750    -549.85159650 
Ar      -3.55675084       1.23808308       3.01695741      -37.45739701      57.43489277      93.74671180     -18.62783011    -331.58362640      20.23180123 
Ar       0.48091980      -8.56610620      -8.32275054       20.47399383      18.98897335       9.90184747     -87.21908357    -703.42437330   -1039.29068900 
Ar       6.98853885       2.36404794       0.83756024      -56.73854276      -8.41436847       9.68074277     687.97690140       3.18174734    -351.09964480 
Ar      -4.07551476      -1.78422834       1.19031291       23.39437177     -42.78295033      56.77634468    -752.73662160    -256.83793710    -167.57964370 
Ar       1.32394250      -6.36045706      -5.99629014       90.70191163      41.43809352     101.28377494     301.30586190     807.13669510     876.34766760 
Ar      -6.01697925      -7.86697795       6.60259796        1.82509992      19.12932908      60.99814759    -110.96734820     215.44422960      24.27863177 
Ar      -4.69135025       0.93407255      -1.18383021       52.96343395     -36.25618762      69.43483186    -232.63779230     377.91502150     679.45342430 
Ar       6.64776749      -4.69585410       1.57643318     -131.95799195     -30.74641857     -56.92007770     485.10296990    -224.19529650     844.80425450 
